/*--------------------------------*- C++ -*----------------------------------*\
| =========                 |                                                 |
| \\      /  F ield         | OpenFOAM: The Open Source CFD Toolbox           |
|  \\    /   O peration     | Version:  2506                                  |
|   \\  /    A nd           | Website:  www.openfoam.com                      |
|    \\/     M anipulation  |                                                 |
\*---------------------------------------------------------------------------*/
FoamFile
{
    version     2.0;
    format      ascii;
    arch        "LSB;label=32;scalar=64";
    class       polyBoundaryMesh;
    location    "constant/polyMesh";
    object      boundary;
}
// * * * * * * * * * * * * * * * * * * * * * * * * * * * * * * * * * * * * * //

6
(
    inner_wall
    {
        type            wall;
        inGroups        1(wall);
        nFaces          40;
        startFace       1540;
    }
    outer_wall
    {
        type            wall;
        inGroups        1(wall);
        nFaces          40;
        startFace       1580;
    }
    top
    {
        type            patch;
        nFaces          20;
        startFace       1620;
    }
    bottom
    {
        type            patch;
        nFaces          20;
        startFace       1640;
    }
    front
    {
        type            wedge;
        inGroups        1(wedge);
        nFaces          800;
        startFace       1660;
    }
    back
    {
        type            wedge;
        inGroups        1(wedge);
        nFaces          800;
        startFace       2460;
    }
)

// ************************************************************************* //
